BUILT_OBJECT_TYPE=SHARED LIBRARY
BUILD = NO

OS = Windows_NT
BUILD = YES
LINK_WITH = NS0S3STR
SYS_LIBS = gdiplus.lib
LOCAL_LDFLAGS = /NODEFAULTLIB:LIBCMTD /DEF:$(MODPATH)\src\ConvertRasterFiles.def
